Version 4
SHEET 1 1972 692
WIRE 16 64 -192 64
WIRE 256 64 16 64
WIRE 256 128 256 64
WIRE 272 176 256 176
WIRE 208 208 64 208
WIRE 64 240 64 208
WIRE 256 240 256 224
WIRE 272 240 272 176
WIRE 272 240 256 240
WIRE -192 320 -192 64
WIRE 64 352 64 320
WIRE 256 352 256 240
WIRE 256 352 64 352
WIRE 256 384 256 352
WIRE 352 384 256 384
WIRE 432 384 352 384
WIRE 624 384 512 384
WIRE 688 384 624 384
WIRE 784 384 688 384
WIRE 256 416 256 384
WIRE 624 416 624 384
WIRE 784 432 784 384
WIRE -192 448 -192 400
WIRE 272 464 256 464
WIRE 208 496 64 496
WIRE 624 512 624 496
WIRE 784 512 784 496
WIRE 784 512 624 512
WIRE 64 528 64 496
WIRE 256 528 256 512
WIRE 272 528 272 464
WIRE 272 528 256 528
WIRE 624 544 624 512
WIRE 64 640 64 608
WIRE 256 640 256 528
WIRE 256 640 64 640
WIRE 256 672 256 640
FLAG 256 672 0
FLAG -192 448 0
FLAG 624 544 0
FLAG 16 64 IN
FLAG 352 384 SW
FLAG 688 384 OUT
SYMBOL nmos4 208 128 R0
WINDOW 3 56 60 Left 2
SYMATTR Value BCDMOS
SYMATTR InstName M1
SYMATTR Value2 l=600n w=$W1
SYMBOL nmos4 208 416 R0
WINDOW 3 56 60 Left 2
SYMATTR Value BCDMOS
SYMATTR InstName M2
SYMATTR Value2 l=600n w=$W2
SYMBOL voltage 64 512 R0
WINDOW 123 0 0 Left 0
WINDOW 39 0 0 Left 0
SYMATTR InstName V1
SYMATTR Value PULSE(5 0 1u 2n 2n 1u 2u)
SYMBOL voltage 64 224 R0
WINDOW 123 0 0 Left 0
WINDOW 39 0 0 Left 0
SYMATTR InstName V2
SYMATTR Value PULSE(0 5 1u 2n 2n 1u 2u)
SYMBOL voltage -192 304 R0
WINDOW 123 0 0 Left 0
WINDOW 39 0 0 Left 0
SYMATTR InstName VIN
SYMATTR Value 24
SYMBOL ind 416 400 R270
WINDOW 0 32 56 VTop 2
WINDOW 3 5 56 VBottom 2
SYMATTR InstName L
SYMATTR Value 2.2u
SYMBOL res 608 400 R0
SYMATTR InstName RLOAD
SYMATTR Value 12
SYMBOL cap 768 432 R0
SYMATTR InstName Co
SYMATTR Value 47u
TEXT 672 112 Left 2 !.tran 600u
TEXT 664 160 Left 2 !.model BCDMOS NMOS(Kp=90u Vto=0.7 Lambda=0.01 Rd=1m Rs=1m)
TEXT 1480 112 Left 2 !.meas tran Pin AVG -V(IN)*I(VIN)\n+ TRIG V(SW) VAL=12 TD=400u FALL=1\n+ TARG V(SW) VAL=12 TD=550u FALL=1\n.meas tran Pout AVG V(OUT)*I(RLOAD)\n+ TRIG V(SW) VAL=12 TD=400u FALL=1\n+ TARG V(SW) VAL=12 TD=550u FALL=1\n.meas Eff param Pout/Pin
