Version 4
SHEET 1 2880 1200
WIRE -224 -80 -384 -80
WIRE -128 -80 -224 -80
WIRE 256 -80 -128 -80
WIRE -384 -64 -384 -80
WIRE -224 -32 -224 -80
WIRE -192 -32 -224 -32
WIRE 352 -32 128 -32
WIRE 400 -32 352 -32
WIRE 480 -32 400 -32
WIRE 480 -16 480 -32
WIRE -384 32 -384 16
WIRE -304 48 -320 48
WIRE -192 48 -224 48
WIRE 160 48 128 48
WIRE 176 48 160 48
WIRE 256 48 256 -80
WIRE 256 48 240 48
WIRE 352 48 352 -32
WIRE 480 80 480 64
WIRE 368 96 352 96
WIRE -400 128 -464 128
WIRE -288 128 -320 128
WIRE -192 128 -288 128
WIRE 304 128 128 128
WIRE 160 144 160 48
WIRE 352 160 352 144
WIRE 368 160 368 96
WIRE 368 160 352 160
WIRE -464 208 -464 192
WIRE -288 208 -288 192
WIRE -288 208 -464 208
WIRE -192 208 -288 208
WIRE 160 208 128 208
WIRE 304 208 160 208
WIRE 352 208 352 160
WIRE 352 208 304 208
WIRE 384 208 352 208
WIRE 512 208 464 208
WIRE 608 208 512 208
WIRE 704 208 608 208
WIRE 816 208 704 208
WIRE 512 224 512 208
WIRE 704 224 704 208
WIRE 816 224 816 208
WIRE -304 288 -320 288
WIRE -192 288 -224 288
WIRE 256 288 256 48
WIRE 256 288 128 288
WIRE 608 304 608 208
WIRE 704 320 704 288
WIRE 816 320 816 304
WIRE 512 336 512 304
WIRE -192 368 -224 368
WIRE 256 368 256 288
WIRE 256 368 128 368
WIRE 352 368 352 208
WIRE 368 416 352 416
WIRE 512 416 512 400
WIRE 608 416 608 384
WIRE 608 416 512 416
WIRE 608 432 608 416
WIRE -304 448 -320 448
WIRE -192 448 -240 448
WIRE 304 448 128 448
WIRE 368 464 368 416
WIRE 368 464 352 464
WIRE 352 480 352 464
WIRE -192 528 -224 528
WIRE 160 528 128 528
WIRE 608 528 608 512
WIRE -464 576 -464 208
WIRE 512 576 512 416
WIRE 512 576 -464 576
FLAG 480 80 0
FLAG 352 480 0
FLAG 160 528 0
FLAG -224 528 0
FLAG -384 32 0
FLAG 816 320 0
FLAG -320 288 0
FLAG -320 48 0
FLAG -320 448 0
FLAG 816 208 OUT
FLAG -224 368 0
FLAG 400 -32 IN
FLAG 608 528 0
FLAG -128 -80 vcc
FLAG 304 208 SW
FLAG 704 320 0
SYMBOL nmos4 304 48 R0
WINDOW 3 56 60 Left 2
SYMATTR Value BCDMOSHS
SYMATTR InstName M1
SYMATTR Value2 l=1u w=$w1
SYMBOL nmos4 304 368 R0
WINDOW 3 56 60 Left 2
SYMATTR Value BCDMOSLS
SYMATTR InstName M2
SYMATTR Value2 l=1u w=$w2
SYMBOL PowerProducts\\LTC3703 -32 256 R0
SYMATTR InstName U1
SYMBOL voltage -384 -80 R0
WINDOW 0 29 24 Left 2
WINDOW 123 0 0 Left 0
WINDOW 39 0 0 Left 0
SYMATTR InstName Vcc
SYMATTR Value 10
SYMBOL voltage 480 -32 R0
WINDOW 123 0 0 Left 0
WINDOW 39 0 0 Left 0
SYMATTR InstName VIN
SYMATTR Value 48
SYMBOL ind 368 224 R270
WINDOW 0 32 56 VTop 2
WINDOW 3 5 56 VBottom 2
SYMATTR InstName L
SYMATTR Value 10u
SYMATTR SpiceLine Rser=3m Cpar=1p
SYMBOL res -208 272 R90
WINDOW 0 0 56 VBottom 2
WINDOW 3 32 56 VTop 2
SYMATTR InstName R1
SYMATTR Value 10K
SYMBOL res -208 32 R90
WINDOW 0 0 56 VBottom 2
WINDOW 3 32 56 VTop 2
SYMATTR InstName R2
SYMATTR Value 25K
SYMBOL res -304 112 R90
WINDOW 0 0 56 VBottom 2
WINDOW 3 32 56 VTop 2
SYMATTR InstName R8
SYMATTR Value 100K
SYMBOL cap -480 128 R0
WINDOW 0 30 21 Left 2
WINDOW 3 28 56 Left 2
SYMATTR InstName C5
SYMATTR Value 2200p
SYMBOL res 592 288 R0
SYMATTR InstName R9
SYMATTR Value 113K
SYMBOL res 496 208 R0
SYMATTR InstName R10
SYMATTR Value 100
SYMBOL cap 496 336 R0
WINDOW 0 29 12 Left 2
WINDOW 3 28 56 Left 2
SYMATTR InstName C6
SYMATTR Value 2200p
SYMBOL cap -240 432 R90
WINDOW 0 0 32 VBottom 2
WINDOW 3 32 32 VTop 2
SYMATTR InstName C7
SYMATTR Value .001u
SYMBOL cap 144 144 R0
WINDOW 0 30 5 Left 2
WINDOW 3 37 44 Left 2
SYMATTR InstName C8
SYMATTR Value .1u
SYMBOL cap -304 128 R0
WINDOW 0 35 21 Left 2
WINDOW 3 28 56 Left 2
SYMATTR InstName C9
SYMATTR Value 1000p
SYMBOL schottky 240 64 M270
WINDOW 0 32 32 VTop 2
WINDOW 3 0 32 VBottom 2
SYMATTR InstName D3
SYMATTR Value 1N5817
SYMATTR Description Diode
SYMATTR Type diode
SYMBOL res 800 208 R0
SYMATTR InstName RLOAD
SYMATTR Value 2.4
SYMBOL res 592 416 R0
SYMATTR InstName R3
SYMATTR Value 8.06K
SYMBOL cap 688 224 R0
WINDOW 3 39 33 Left 2
WINDOW 123 28 60 Left 2
SYMATTR Value 270u
SYMATTR Value2 x2
SYMATTR SpiceLine Rser=10m
SYMATTR InstName C2
TEXT 752 -48 Left 2 !.tran 0 1.7m 1.5m steady startup\n*.option cshunt=1e-15 reltol=0.003 abstol=1e-10 gmin=1e-10
TEXT 728 -160 Left 2 !.model BCDMOSHS NMOS(Kp=75 Vto=2 Rg=1.5 Rd=$Rd_HS Cgso=1000e-12 Cgdo=1200e-12)\n.model BCDMOSLS NMOS(Kp=75 Vto=2 Rg=1.5 Rd=$Rd_LS Cgso=1000e-12 Cgdo=1200e-12)\n*.model BCDMOSHS NMOS(Kp=75 Vto=2 Rg=1.5 Rd=1.25m Cgso=1000e-12 Cgdo=1200e-12)\n*.model BCDMOSLS NMOS(Kp=75 Vto=2 Rg=1.5 Rd=1.775m Cgso=1000e-12 Cgdo=1200e-12)
TEXT 744 -440 Left 2 !.meas tran Pin AVG (-V(IN)*I(VIN))\n+TRIG V(SW) VAL=12 TD=0 FALL=1  \n+TARG V(SW) VAL=12 TD=20u FALL=1\n.meas tran Pout AVG V(OUT)*I(RLOAD)\n+ TRIG V(SW) VAL=12 TD=0 FALL=1\n+ TARG V(SW) VAL=12 TD=20u FALL=1\n.meas Eff param Pout/Pin
